This namelist contains various input parameters for HYDRO runs

&RUN
nstepmax=100000
tend=200.0
noutput=100000000
on_output=.true.
/

&MESH
nx=1000
ny=100
dx=0.01
boundary_left=1
boundary_right=1
boundary_down=1
boundary_up=1
idimbloc=21
jdimbloc=21
/

&HYDRO
courant_factor=0.8
niter_riemann=10
/
